/*--------------------------------*- C++ -*----------------------------------*\
| =========                 |                                                 |
| \\      /  F ield         | OpenFOAM Extend Project: Open Source CFD        |
|  \\    /   O peration     | Version:  1.6-ext                               |
|   \\  /    A nd           | Web:      www.extend-project.de                 |
|    \\/     M anipulation  |                                                 |
\*---------------------------------------------------------------------------*/
FoamFile
{
    version     2.0;
    format      ascii;
    class       dictionary;
    location    "constant/polyMesh";
    object      blockMeshDict;
}
// * * * * * * * * * * * * * * * * * * * * * * * * * * * * * * * * * * * * * //

// * * * * * * * * * * * * * * * * * * * * * * * * * * * * * * * * * * * * * //

mergeType	points;
convertToMeters 0.001;

vertices
(
);

blocks
(
);

edges
(

);

boundary
(
    ulaz 
    {
        type patch;
        faces
        (
        );
    }

    izlaz
    {
        type patch;
        faces
        (
        );
    }

    strana_d
    {
        type wedge;
        faces
        (
        );
    }

    strana_l
    {
        type wedge;
        faces
        (
        );
    }


    os
    {
       type empty;
        faces
        (
        );
    } 
    
    
    aneurizma
    {
       type wall;
        faces
        (
        );
    } 
    
    
    
    
    

);

mergePatchPairs
(
);

// ************************************************************************* //









































































































































































































































































































































































































































































































































































































































































































































































































































































































































































































































































































































































































































































































































































































































































































































































































































































































































































































































































































































































































































































































































































































